75427
  -OEChem-05272415253D

 29 28  0     1  0  0  0  0  0999 V2000
   -4.6818    0.5492   -0.6634 O   0  0  0  0  0  0  0  0  0  0  0  0
   -1.4651   -0.3206    0.4779 C   0  0  2  0  0  0  0  0  0  0  0  0
   -0.0555   -0.6308   -0.0703 C   0  0  0  0  0  0  0  0  0  0  0  0
    1.0546   -0.4835    0.9750 C   0  0  0  0  0  0  0  0  0  0  0  0
   -2.5043   -0.5358   -0.6359 C   0  0  0  0  0  0  0  0  0  0  0  0
   -1.5547    1.1080    1.0275 C   0  0  0  0  0  0  0  0  0  0  0  0
    2.4033   -0.7743    0.3772 C   0  0  0  0  0  0  0  0  0  0  0  0
    3.2534    0.0973   -0.1978 C   0  0  0  0  0  0  0  0  0  0  0  0
   -3.9339   -0.3044   -0.1991 C   0  0  0  0  0  0  0  0  0  0  0  0
    4.5924   -0.2590   -0.7786 C   0  0  0  0  0  0  0  0  0  0  0  0
    2.8917    1.5540   -0.3125 C   0  0  0  0  0  0  0  0  0  0  0  0
   -1.6878   -1.0126    1.3004 H   0  0  0  0  0  0  0  0  0  0  0  0
   -0.0439   -1.6564   -0.4629 H   0  0  0  0  0  0  0  0  0  0  0  0
    0.1520    0.0297   -0.9228 H   0  0  0  0  0  0  0  0  0  0  0  0
    1.0559    0.5069    1.4371 H   0  0  0  0  0  0  0  0  0  0  0  0
    0.8810   -1.1903    1.7959 H   0  0  0  0  0  0  0  0  0  0  0  0
   -2.4491   -1.5647   -1.0100 H   0  0  0  0  0  0  0  0  0  0  0  0
   -2.3000    0.1303   -1.4829 H   0  0  0  0  0  0  0  0  0  0  0  0
   -2.5725    1.3505    1.3499 H   0  0  0  0  0  0  0  0  0  0  0  0
   -0.9166    1.2414    1.9058 H   0  0  0  0  0  0  0  0  0  0  0  0
   -1.2567    1.8424    0.2715 H   0  0  0  0  0  0  0  0  0  0  0  0
    2.7030   -1.8205    0.4177 H   0  0  0  0  0  0  0  0  0  0  0  0
   -4.2911   -0.9809    0.5969 H   0  0  0  0  0  0  0  0  0  0  0  0
    4.8110   -1.3256   -0.6625 H   0  0  0  0  0  0  0  0  0  0  0  0
    4.6201   -0.0261   -1.8478 H   0  0  0  0  0  0  0  0  0  0  0  0
    5.3870    0.3020   -0.2763 H   0  0  0  0  0  0  0  0  0  0  0  0
    3.0428    1.8938   -1.3433 H   0  0  0  0  0  0  0  0  0  0  0  0
    3.5379    2.1510    0.3395 H   0  0  0  0  0  0  0  0  0  0  0  0
    1.8545    1.7871   -0.0627 H   0  0  0  0  0  0  0  0  0  0  0  0
  1  9  2  0  0  0  0
  2  3  1  0  0  0  0
  2  5  1  0  0  0  0
  2  6  1  0  0  0  0
  2 12  1  0  0  0  0
  3  4  1  0  0  0  0
  3 13  1  0  0  0  0
  3 14  1  0  0  0  0
  4  7  1  0  0  0  0
  4 15  1  0  0  0  0
  4 16  1  0  0  0  0
  5  9  1  0  0  0  0
  5 17  1  0  0  0  0
  5 18  1  0  0  0  0
  6 19  1  0  0  0  0
  6 20  1  0  0  0  0
  6 21  1  0  0  0  0
  7  8  2  0  0  0  0
  7 22  1  0  0  0  0
  8 10  1  0  0  0  0
  8 11  1  0  0  0  0
  9 23  1  0  0  0  0
 10 24  1  0  0  0  0
 10 25  1  0  0  0  0
 10 26  1  0  0  0  0
 11 27  1  0  0  0  0
 11 28  1  0  0  0  0
 11 29  1  0  0  0  0
M  END
> <PUBCHEM_COMPOUND_CID>
75427

> <PUBCHEM_CONFORMER_RMSD>
0.6

> <PUBCHEM_CONFORMER_DIVERSEORDER>
3
70
76
12
52
63
67
47
54
71
25
59
8
49
32
45
66
40
74
75
21
16
65
36
78
37
28
60
38
1
31
19
30
6
51
64
68
55
61
20
10
69
72
73
14
23
34
50
35
41
57
11
39
9
77
53
29
5
26
22
48
17
24
62
44
13
33
56
7
58
18
27
42
46
43
2
15
4

> <PUBCHEM_MMFF94_PARTIAL_CHARGES>
10
1 -0.57
10 0.14
11 0.14
22 0.15
23 0.06
4 0.14
5 0.06
7 -0.29
8 -0.28
9 0.45

> <PUBCHEM_EFFECTIVE_ROTOR_COUNT>
5

> <PUBCHEM_PHARMACOPHORE_FEATURES>
4
1 1 acceptor
1 6 hydrophobe
3 8 10 11 hydrophobe
5 2 3 4 5 7 hydrophobe

> <PUBCHEM_HEAVY_ATOM_COUNT>
11

> <PUBCHEM_ATOM_DEF_STEREO_COUNT>
1

> <PUBCHEM_ATOM_UDEF_STEREO_COUNT>
0

> <PUBCHEM_BOND_DEF_STEREO_COUNT>
0

> <PUBCHEM_BOND_UDEF_STEREO_COUNT>
0

> <PUBCHEM_ISOTOPIC_ATOM_COUNT>
0

> <PUBCHEM_COMPONENT_COUNT>
1

> <PUBCHEM_CACTVS_TAUTO_COUNT>
2

> <PUBCHEM_CONFORMER_ID>
000126A300000003

> <PUBCHEM_MMFF94_ENERGY>
11.2123

> <PUBCHEM_FEATURE_SELFOVERLAP>
20.34

> <PUBCHEM_SHAPE_FINGERPRINT>
11062470 55 17022619767164093555
12251169 10 11097858501398737530
14123238 8 15285360630654054155
14250199 8 18339651143396810540
14252887 29 10951778486339302332
14445660 50 11602829016369995186
14993402 34 18412826888777045278
15775835 57 17603303769441916962
177051 138 10952056670838223095
17802600 8 18410290307326431848
17834074 16 12895068548389813853
17834076 25 16950002530202558311
18186145 218 18187918508355670431
190213 19 18202002148421810074
20432913 95 11312059872027520845
20645476 183 18411412942810476327
20645477 70 18041838407192018562
20767249 442 16588022433282420886
20871998 22 11599743765478564032
21119208 17 18343584044690885790
212847 35 17313098644858299460
21293036 1 18412261748448357795
22485316 2 13542465353957301015
22926399 37 18187368748199563213
22959321 54 18408604794428949144
23402539 116 18060132141699341686
23402655 69 18409731759529528444
23598291 2 18054235323596213610
3060560 45 18410857655547982214
42 15 10231759997949129807
449060 50 12468359059301795498
449060 62 17022901237803645378

> <PUBCHEM_SHAPE_MULTIPOLES>
220.51
8.89
1.14
0.97
1.58
0.4
-0.1
0.49
3.15
-0.38
-0.04
0.04
0.04
-0.29

> <PUBCHEM_SHAPE_SELFOVERLAP>
404.355

> <PUBCHEM_SHAPE_VOLUME>
140.5

> <PUBCHEM_COORDINATE_TYPE>
2
5
10

$$$$
