102861
  -OEChem-05272415253D

 38 38  0     1  0  0  0  0  0999 V2000
    1.1368   -2.6857   -1.8080 O   0  0  0  0  0  0  0  0  0  0  0  0
    2.8364    2.2440   -0.3340 O   0  0  0  0  0  0  0  0  0  0  0  0
    0.6278    2.2717    0.3328 O   0  0  0  0  0  0  0  0  0  0  0  0
    0.8870   -0.5217    1.0085 C   0  0  1  0  0  0  0  0  0  0  0  0
    0.3568   -0.8808   -0.3924 C   0  0  2  0  0  0  0  0  0  0  0  0
    1.2720   -1.8693    1.6286 C   0  0  0  0  0  0  0  0  0  0  0  0
   -1.1384   -1.1654   -0.4026 C   0  0  0  0  0  0  0  0  0  0  0  0
    1.8674   -2.6859    0.4886 C   0  0  0  0  0  0  0  0  0  0  0  0
    1.1218   -2.1512   -0.7057 C   0  0  0  0  0  0  0  0  0  0  0  0
    2.0890    0.4228    0.9300 C   0  0  0  0  0  0  0  0  0  0  0  0
   -1.9542    0.0992   -0.1283 C   0  0  0  0  0  0  0  0  0  0  0  0
   -3.4565   -0.1843   -0.1738 C   0  0  0  0  0  0  0  0  0  0  0  0
    1.7303    1.7432    0.2922 C   0  0  0  0  0  0  0  0  0  0  0  0
   -4.2692    1.0733    0.1338 C   0  0  0  0  0  0  0  0  0  0  0  0
   -5.7625    0.7880    0.1225 C   0  0  0  0  0  0  0  0  0  0  0  0
    2.6554    3.5020   -0.9921 C   0  0  0  0  0  0  0  0  0  0  0  0
    0.1316   -0.0449    1.6400 H   0  0  0  0  0  0  0  0  0  0  0  0
    0.6096   -0.1292   -1.1471 H   0  0  0  0  0  0  0  0  0  0  0  0
    1.9693   -1.7721    2.4667 H   0  0  0  0  0  0  0  0  0  0  0  0
    0.3728   -2.3711    2.0076 H   0  0  0  0  0  0  0  0  0  0  0  0
   -1.3929   -1.9389    0.3328 H   0  0  0  0  0  0  0  0  0  0  0  0
   -1.4242   -1.5730   -1.3811 H   0  0  0  0  0  0  0  0  0  0  0  0
    2.9354   -2.4880    0.3635 H   0  0  0  0  0  0  0  0  0  0  0  0
    1.6865   -3.7550    0.6203 H   0  0  0  0  0  0  0  0  0  0  0  0
    2.8963   -0.0393    0.3493 H   0  0  0  0  0  0  0  0  0  0  0  0
    2.4770    0.6331    1.9330 H   0  0  0  0  0  0  0  0  0  0  0  0
   -1.7060    0.8641   -0.8743 H   0  0  0  0  0  0  0  0  0  0  0  0
   -1.7135    0.5173    0.8535 H   0  0  0  0  0  0  0  0  0  0  0  0
   -3.7300   -0.5668   -1.1646 H   0  0  0  0  0  0  0  0  0  0  0  0
   -3.7036   -0.9667    0.5543 H   0  0  0  0  0  0  0  0  0  0  0  0
   -4.0446    1.8514   -0.6049 H   0  0  0  0  0  0  0  0  0  0  0  0
   -3.9880    1.4683    1.1170 H   0  0  0  0  0  0  0  0  0  0  0  0
   -6.0839    0.4196   -0.8570 H   0  0  0  0  0  0  0  0  0  0  0  0
   -6.3245    1.7008    0.3433 H   0  0  0  0  0  0  0  0  0  0  0  0
   -6.0244    0.0374    0.8751 H   0  0  0  0  0  0  0  0  0  0  0  0
    1.9001    3.4123   -1.7788 H   0  0  0  0  0  0  0  0  0  0  0  0
    2.3701    4.2707   -0.2675 H   0  0  0  0  0  0  0  0  0  0  0  0
    3.6066    3.7865   -1.4497 H   0  0  0  0  0  0  0  0  0  0  0  0
  1  9  2  0  0  0  0
  2 13  1  0  0  0  0
  2 16  1  0  0  0  0
  3 13  2  0  0  0  0
  4  5  1  0  0  0  0
  4  6  1  0  0  0  0
  4 10  1  0  0  0  0
  4 17  1  0  0  0  0
  5  7  1  0  0  0  0
  5  9  1  0  0  0  0
  5 18  1  0  0  0  0
  6  8  1  0  0  0  0
  6 19  1  0  0  0  0
  6 20  1  0  0  0  0
  7 11  1  0  0  0  0
  7 21  1  0  0  0  0
  7 22  1  0  0  0  0
  8  9  1  0  0  0  0
  8 23  1  0  0  0  0
  8 24  1  0  0  0  0
 10 13  1  0  0  0  0
 10 25  1  0  0  0  0
 10 26  1  0  0  0  0
 11 12  1  0  0  0  0
 11 27  1  0  0  0  0
 11 28  1  0  0  0  0
 12 14  1  0  0  0  0
 12 29  1  0  0  0  0
 12 30  1  0  0  0  0
 14 15  1  0  0  0  0
 14 31  1  0  0  0  0
 14 32  1  0  0  0  0
 15 33  1  0  0  0  0
 15 34  1  0  0  0  0
 15 35  1  0  0  0  0
 16 36  1  0  0  0  0
 16 37  1  0  0  0  0
 16 38  1  0  0  0  0
M  END
> <PUBCHEM_COMPOUND_CID>
102861

> <PUBCHEM_CONFORMER_RMSD>
0.8

> <PUBCHEM_CONFORMER_DIVERSEORDER>
1
137
248
23
44
138
235
247
76
53
118
172
112
66
121
127
92
16
228
238
234
108
168
220
46
188
14
129
93
113
9
216
207
26
254
70
141
42
190
255
167
82
7
183
177
240
203
72
43
105
18
184
5
215
115
153
236
244
98
8
186
122
229
104
120
212
160
251
164
149
146
209
4
64
245
257
173
253
154
58
252
52
91
142
242
123
126
201
80
246
69
195
106
171
158
191
83
152
165
124
110
35
139
178
226
241
20
15
50
87
60
163
145
179
194
230
132
88
111
189
192
185
81
258
204
63
54
136
221
174
250
25
94
210
99
57
2
49
157
22
176
47
169
218
180
155
243
219
187
13
85
10
3
74
133
109
37
213
205
159
51
100
19
206
231
150
86
48
222
170
17
39
78
249
193
34
116
196
41
33
40
119
199
232
131
181
61
239
182
147
162
128
237
256
197
143
134
200
144
233
97
211
202
77
148
11
73
21
79
224
151
214
175
36
32
223
101
103
68
24
75
12
62
38
56
208
227
55
65
29
31
125
27
45
6
102
59
90
156
135
30
95
225
107
28
166
114
96
161
117
198
140
130
89
67
217
71
84

> <PUBCHEM_MMFF94_PARTIAL_CHARGES>
9
1 -0.57
10 0.06
13 0.66
16 0.28
2 -0.43
3 -0.57
5 0.06
8 0.06
9 0.45

> <PUBCHEM_EFFECTIVE_ROTOR_COUNT>
7.8

> <PUBCHEM_PHARMACOPHORE_FEATURES>
5
1 1 acceptor
1 15 hydrophobe
1 3 acceptor
4 7 11 12 14 hydrophobe
5 4 5 6 8 9 rings

> <PUBCHEM_HEAVY_ATOM_COUNT>
16

> <PUBCHEM_ATOM_DEF_STEREO_COUNT>
0

> <PUBCHEM_ATOM_UDEF_STEREO_COUNT>
2

> <PUBCHEM_BOND_DEF_STEREO_COUNT>
0

> <PUBCHEM_BOND_UDEF_STEREO_COUNT>
0

> <PUBCHEM_ISOTOPIC_ATOM_COUNT>
0

> <PUBCHEM_COMPONENT_COUNT>
1

> <PUBCHEM_CACTVS_TAUTO_COUNT>
3

> <PUBCHEM_CONFORMER_ID>
000191CD00000001

> <PUBCHEM_MMFF94_ENERGY>
18.1723

> <PUBCHEM_FEATURE_SELFOVERLAP>
25.372

> <PUBCHEM_SHAPE_FINGERPRINT>
10382601 240 18260266356310271033
10922049 32 18120382205063228154
10980938 120 18342170073075318761
12346645 6 18271800199067931395
12617007 42 17986120608209413839
12633257 1 17822835551004186993
14004458 79 17402626142678969342
14123255 52 18194119839994513113
14344429 50 18262235495883951979
14817 1 16264275787165312754
15806764 133 18120659020554519045
15906896 17 17688309401429398042
16945 1 18116126966299216210
17134986 127 18339645662696605828
20339313 130 18199467654251157243
20559304 39 17917423173493119977
20645477 70 18411415086578716821
20671657 1 18272365382457009713
21524375 3 18193265523569516944
2255824 54 18339923710648344007
23419403 2 17543689378534102890
23558518 356 17976810205991826754
23559900 14 18059009476615419055
2637199 183 18264495163919442028
298252 57 18197780122829633408
3060560 45 18131351877828327998
31174 14 18115016403846947791
394222 165 18263074560478485072
430814 3 18046331192191288626
44154327 71 18335982064494593941
474 4 18334572490582159537
5283268 108 18124313805515534449
56616090 278 18333738991932511321
7364860 26 18342176639737234631
81228 2 17333084226733978705
81539 233 18335420209641411749
9841814 1 18190461558813600163
9999458 23 18186238446209477766

> <PUBCHEM_SHAPE_MULTIPOLES>
311.66
7.01
3.73
1.2
15.84
1.78
0.08
4.04
-0.3
-5.11
1.07
-0.8
-0.65
-0.63

> <PUBCHEM_SHAPE_SELFOVERLAP>
610.8

> <PUBCHEM_SHAPE_VOLUME>
189.4

> <PUBCHEM_COORDINATE_TYPE>
2
5
10

$$$$
