605629
  -OEChem-05272415263D

 33 33  0     0  0  0  0  0  0999 V2000
    4.4821   -0.0390    0.2601 O   0  0  0  0  0  0  0  0  0  0  0  0
    2.7968    0.0718   -1.3110 O   0  0  0  0  0  0  0  0  0  0  0  0
   -3.3461   -0.0066   -0.2705 C   0  0  0  0  0  0  0  0  0  0  0  0
   -1.8500   -0.0061    0.0847 C   0  0  0  0  0  0  0  0  0  0  0  0
   -3.5631    0.7375   -1.6058 C   0  0  0  0  0  0  0  0  0  0  0  0
   -4.1448    0.7050    0.8430 C   0  0  0  0  0  0  0  0  0  0  0  0
   -3.9496   -1.4202   -0.4324 C   0  0  0  0  0  0  0  0  0  0  0  0
   -1.2209    1.2021    0.2512 C   0  0  0  0  0  0  0  0  0  0  0  0
   -1.2124   -1.2136    0.2193 C   0  0  0  0  0  0  0  0  0  0  0  0
    0.8190   -0.0049    0.7190 C   0  0  0  0  0  0  0  0  0  0  0  0
    0.1363    1.2027    0.5736 C   0  0  0  0  0  0  0  0  0  0  0  0
    0.1447   -1.2131    0.5418 C   0  0  0  0  0  0  0  0  0  0  0  0
    2.2699   -0.0043    1.0631 C   0  0  0  0  0  0  0  0  0  0  0  0
    3.1795    0.0152   -0.1501 C   0  0  0  0  0  0  0  0  0  0  0  0
    5.4587   -0.0266   -0.7861 C   0  0  0  0  0  0  0  0  0  0  0  0
   -4.6181    0.7138   -1.9036 H   0  0  0  0  0  0  0  0  0  0  0  0
   -3.2732    1.7923   -1.5488 H   0  0  0  0  0  0  0  0  0  0  0  0
   -2.9795    0.2786   -2.4127 H   0  0  0  0  0  0  0  0  0  0  0  0
   -3.8668    1.7592    0.9488 H   0  0  0  0  0  0  0  0  0  0  0  0
   -5.2209    0.6798    0.6341 H   0  0  0  0  0  0  0  0  0  0  0  0
   -3.9833    0.2227    1.8144 H   0  0  0  0  0  0  0  0  0  0  0  0
   -5.0160   -1.3609   -0.6844 H   0  0  0  0  0  0  0  0  0  0  0  0
   -3.4686   -1.9818   -1.2419 H   0  0  0  0  0  0  0  0  0  0  0  0
   -3.8798   -2.0049    0.4925 H   0  0  0  0  0  0  0  0  0  0  0  0
   -1.7311    2.1530    0.1427 H   0  0  0  0  0  0  0  0  0  0  0  0
   -1.6851   -2.1791    0.0928 H   0  0  0  0  0  0  0  0  0  0  0  0
    0.6508    2.1507    0.7069 H   0  0  0  0  0  0  0  0  0  0  0  0
    0.6665   -2.1604    0.6503 H   0  0  0  0  0  0  0  0  0  0  0  0
    2.5051    0.8705    1.6815 H   0  0  0  0  0  0  0  0  0  0  0  0
    2.5083   -0.8950    1.6572 H   0  0  0  0  0  0  0  0  0  0  0  0
    5.3831    0.8995   -1.3639 H   0  0  0  0  0  0  0  0  0  0  0  0
    5.3304   -0.8989   -1.4342 H   0  0  0  0  0  0  0  0  0  0  0  0
    6.4497   -0.0737   -0.3267 H   0  0  0  0  0  0  0  0  0  0  0  0
  1 14  1  0  0  0  0
  1 15  1  0  0  0  0
  2 14  2  0  0  0  0
  3  4  1  0  0  0  0
  3  5  1  0  0  0  0
  3  6  1  0  0  0  0
  3  7  1  0  0  0  0
  4  8  2  0  0  0  0
  4  9  1  0  0  0  0
  5 16  1  0  0  0  0
  5 17  1  0  0  0  0
  5 18  1  0  0  0  0
  6 19  1  0  0  0  0
  6 20  1  0  0  0  0
  6 21  1  0  0  0  0
  7 22  1  0  0  0  0
  7 23  1  0  0  0  0
  7 24  1  0  0  0  0
  8 11  1  0  0  0  0
  8 25  1  0  0  0  0
  9 12  2  0  0  0  0
  9 26  1  0  0  0  0
 10 11  2  0  0  0  0
 10 12  1  0  0  0  0
 10 13  1  0  0  0  0
 11 27  1  0  0  0  0
 12 28  1  0  0  0  0
 13 14  1  0  0  0  0
 13 29  1  0  0  0  0
 13 30  1  0  0  0  0
 15 31  1  0  0  0  0
 15 32  1  0  0  0  0
 15 33  1  0  0  0  0
M  END
> <PUBCHEM_COMPOUND_CID>
605629

> <PUBCHEM_CONFORMER_RMSD>
0.6

> <PUBCHEM_CONFORMER_DIVERSEORDER>
1
10
9
8
7
2
6
5
4
3
11

> <PUBCHEM_MMFF94_PARTIAL_CHARGES>
16
1 -0.43
10 -0.14
11 -0.15
12 -0.15
13 0.2
14 0.66
15 0.28
2 -0.57
25 0.15
26 0.15
27 0.15
28 0.15
3 0.14
4 -0.14
8 -0.15
9 -0.15

> <PUBCHEM_EFFECTIVE_ROTOR_COUNT>
4

> <PUBCHEM_PHARMACOPHORE_FEATURES>
3
1 2 acceptor
4 3 5 6 7 hydrophobe
6 4 8 9 10 11 12 rings

> <PUBCHEM_HEAVY_ATOM_COUNT>
15

> <PUBCHEM_ATOM_DEF_STEREO_COUNT>
0

> <PUBCHEM_ATOM_UDEF_STEREO_COUNT>
0

> <PUBCHEM_BOND_DEF_STEREO_COUNT>
0

> <PUBCHEM_BOND_UDEF_STEREO_COUNT>
0

> <PUBCHEM_ISOTOPIC_ATOM_COUNT>
0

> <PUBCHEM_COMPONENT_COUNT>
1

> <PUBCHEM_CACTVS_TAUTO_COUNT>
1

> <PUBCHEM_CONFORMER_ID>
00093DBD00000001

> <PUBCHEM_MMFF94_ENERGY>
43.7677

> <PUBCHEM_FEATURE_SELFOVERLAP>
15.223

> <PUBCHEM_SHAPE_FINGERPRINT>
10465860 250 12391510888516588483
11543360 7 17095239258888474955
11769659 78 15051722106122052277
12032990 46 18201717405323159891
12119455 92 14201391699042522354
12236239 1 17749103388331196266
12251169 10 9007053561324652842
12507557 5 14634873067244916783
13288520 33 16702303459812333189
13760787 19 17458335334715495859
13760787 5 18113893827986427027
14252887 29 13686307872346220476
14289901 80 15864070970747182217
14911166 2 18411694396327511793
14943859 89 16805323309994399520
14993402 34 18040431109458854191
16945 1 18339910550915560897
17834072 33 15267054891659676920
18186145 218 18411973685118662633
187816 3 18411703183830547616
19026448 4 16271635758992591659
19026448 5 16370991989070197425
1986462 14 18342173393042788591
200 152 16487257668738153194
20281475 54 18342168943140275995
20374829 77 17917993858640566390
20645476 183 17748824146041693002
20645477 70 15841276934777262532
20871999 31 18334572481812876847
21119208 17 17967534575628215950
22485316 2 15985102994365810132
22854114 59 12757150182004088826
23402539 116 18273214175442942588
23402655 69 17967807206771613036
23559900 14 18341894121969675040
26918003 58 13758354457939675094
2748010 2 18122894597880743833
42 15 12319740271682763808
449060 50 14345797136618322378
4990 188 18131353007399185166
633830 44 18060129951329531977

> <PUBCHEM_SHAPE_MULTIPOLES>
296.95
9.51
1.22
1.15
7.92
0.15
0.29
0.18
2.79
-1.01
-0.08
-0.15
-0.14
-0.03

> <PUBCHEM_SHAPE_SELFOVERLAP>
607.122

> <PUBCHEM_SHAPE_VOLUME>
174

> <PUBCHEM_COORDINATE_TYPE>
2
5
10

$$$$
