82336
  -OEChem-05272415263D

 26 26  0     0  0  0  0  0  0999 V2000
    1.9518    0.7704   -0.9159 O   0  0  0  0  0  0  0  0  0  0  0  0
    1.9007    0.7092    1.3847 O   0  0  0  0  0  0  0  0  0  0  0  0
   -0.0720   -1.8020    0.0639 N   0  0  0  0  0  0  0  0  0  0  0  0
   -0.7887   -0.5851    0.0249 C   0  0  0  0  0  0  0  0  0  0  0  0
   -0.1288    0.6388    0.1351 C   0  0  0  0  0  0  0  0  0  0  0  0
   -2.1749   -0.6188   -0.1267 C   0  0  0  0  0  0  0  0  0  0  0  0
   -0.8550    1.8290    0.0940 C   0  0  0  0  0  0  0  0  0  0  0  0
   -0.1184   -2.7147   -1.0594 C   0  0  0  0  0  0  0  0  0  0  0  0
    0.7279   -2.1428    1.2221 C   0  0  0  0  0  0  0  0  0  0  0  0
   -2.9011    0.5714   -0.1677 C   0  0  0  0  0  0  0  0  0  0  0  0
   -2.2413    1.7954   -0.0573 C   0  0  0  0  0  0  0  0  0  0  0  0
    1.3184    0.7081    0.2940 C   0  0  0  0  0  0  0  0  0  0  0  0
    3.3815    0.8410   -0.8917 C   0  0  0  0  0  0  0  0  0  0  0  0
   -2.7065   -1.5634   -0.2076 H   0  0  0  0  0  0  0  0  0  0  0  0
   -0.3522    2.7890    0.1791 H   0  0  0  0  0  0  0  0  0  0  0  0
    0.0014   -2.1768   -2.0063 H   0  0  0  0  0  0  0  0  0  0  0  0
   -1.0700   -3.2557   -1.0806 H   0  0  0  0  0  0  0  0  0  0  0  0
    0.6862   -3.4557   -1.0006 H   0  0  0  0  0  0  0  0  0  0  0  0
    0.5945   -3.2010    1.4739 H   0  0  0  0  0  0  0  0  0  0  0  0
    0.4406   -1.5673    2.1091 H   0  0  0  0  0  0  0  0  0  0  0  0
    1.7916   -1.9831    1.0192 H   0  0  0  0  0  0  0  0  0  0  0  0
   -3.9807    0.5453   -0.2841 H   0  0  0  0  0  0  0  0  0  0  0  0
   -2.8069    2.7220   -0.0889 H   0  0  0  0  0  0  0  0  0  0  0  0
    3.7944   -0.0524   -0.4139 H   0  0  0  0  0  0  0  0  0  0  0  0
    3.7056    1.7449   -0.3674 H   0  0  0  0  0  0  0  0  0  0  0  0
    3.7378    0.8852   -1.9241 H   0  0  0  0  0  0  0  0  0  0  0  0
  1 12  1  0  0  0  0
  1 13  1  0  0  0  0
  2 12  2  0  0  0  0
  3  4  1  0  0  0  0
  3  8  1  0  0  0  0
  3  9  1  0  0  0  0
  4  5  1  0  0  0  0
  4  6  2  0  0  0  0
  5  7  2  0  0  0  0
  5 12  1  0  0  0  0
  6 10  1  0  0  0  0
  6 14  1  0  0  0  0
  7 11  1  0  0  0  0
  7 15  1  0  0  0  0
  8 16  1  0  0  0  0
  8 17  1  0  0  0  0
  8 18  1  0  0  0  0
  9 19  1  0  0  0  0
  9 20  1  0  0  0  0
  9 21  1  0  0  0  0
 10 11  2  0  0  0  0
 10 22  1  0  0  0  0
 11 23  1  0  0  0  0
 13 24  1  0  0  0  0
 13 25  1  0  0  0  0
 13 26  1  0  0  0  0
M  END
> <PUBCHEM_COMPOUND_CID>
82336

> <PUBCHEM_CONFORMER_RMSD>
0.6

> <PUBCHEM_CONFORMER_DIVERSEORDER>
1
4
2
3

> <PUBCHEM_MMFF94_PARTIAL_CHARGES>
17
1 -0.43
10 -0.15
11 -0.15
12 0.63
13 0.28
14 0.15
15 0.15
2 -0.57
22 0.15
23 0.15
3 -0.84
4 0.1
5 0.09
6 -0.15
7 -0.15
8 0.37
9 0.37

> <PUBCHEM_EFFECTIVE_ROTOR_COUNT>
3

> <PUBCHEM_PHARMACOPHORE_FEATURES>
3
1 2 acceptor
1 3 cation
6 4 5 6 7 10 11 rings

> <PUBCHEM_HEAVY_ATOM_COUNT>
13

> <PUBCHEM_ATOM_DEF_STEREO_COUNT>
0

> <PUBCHEM_ATOM_UDEF_STEREO_COUNT>
0

> <PUBCHEM_BOND_DEF_STEREO_COUNT>
0

> <PUBCHEM_BOND_UDEF_STEREO_COUNT>
0

> <PUBCHEM_ISOTOPIC_ATOM_COUNT>
0

> <PUBCHEM_COMPONENT_COUNT>
1

> <PUBCHEM_CACTVS_TAUTO_COUNT>
1

> <PUBCHEM_CONFORMER_ID>
000141A000000001

> <PUBCHEM_MMFF94_ENERGY>
60.1628

> <PUBCHEM_FEATURE_SELFOVERLAP>
15.223

> <PUBCHEM_SHAPE_FINGERPRINT>
1 1 18339640019024994382
12423570 1 14956667431888837255
12524768 44 17621317274450332905
12716758 59 18339646771061866568
13380535 21 18196947582401323241
14181834 199 17762023602844237503
15490181 7 18340753940357647777
15775835 57 18411703166424104377
16945 1 18270394030890749225
20511035 2 18121758561656027123
20645476 183 17676769893561706302
20711985 344 18050285074622696378
20871998 184 18124891306306334622
21040471 1 18411130363868310657
21501502 16 18194398888651876417
22802520 49 18126299759606305302
23419403 2 14388680207336054745
23552423 10 18117838798545045369
23559900 14 18272656771073204212
241688 4 16395498690161786603
2748010 2 18411978048915893143
430814 3 17894914052853246816
5084963 1 18130515218214806457
528862 383 18117274757342954755
53812653 8 18334576875321717096
57177213 63 18261115119209814101
7364860 26 17984133756264177423
81228 2 17907572889032250483

> <PUBCHEM_SHAPE_MULTIPOLES>
250.81
3.76
2.6
1.05
0.76
1.73
-0.12
-2.15
0.76
0.07
0.21
0.62
0.3
-0.35

> <PUBCHEM_SHAPE_SELFOVERLAP>
514.778

> <PUBCHEM_SHAPE_VOLUME>
146.4

> <PUBCHEM_COORDINATE_TYPE>
2
5
10

$$$$
