32594
  -OEChem-05272415263D

 26 26  0     0  0  0  0  0  0999 V2000
   -0.7525    1.7842   -0.3440 O   0  0  0  0  0  0  0  0  0  0  0  0
   -0.0058   -1.7668   -0.3800 N   0  0  0  0  0  0  0  0  0  0  0  0
   -2.0501    0.0026    0.3663 N   0  0  0  0  0  0  0  0  0  0  0  0
    2.4772    0.3769   -0.0971 C   0  0  0  0  0  0  0  0  0  0  0  0
    1.3830    0.0631   -1.1361 C   0  0  0  0  0  0  0  0  0  0  0  0
    2.0015    1.3869    0.9502 C   0  0  0  0  0  0  0  0  0  0  0  0
    2.9193   -0.9144    0.5960 C   0  0  0  0  0  0  0  0  0  0  0  0
    0.0945   -0.4399   -0.5323 C   0  0  0  0  0  0  0  0  0  0  0  0
   -0.8933    0.4355   -0.1733 C   0  0  0  0  0  0  0  0  0  0  0  0
   -1.1625   -2.1996    0.1594 C   0  0  0  0  0  0  0  0  0  0  0  0
   -2.1667   -1.3306    0.5260 C   0  0  0  0  0  0  0  0  0  0  0  0
   -1.8444    2.6021    0.0649 C   0  0  0  0  0  0  0  0  0  0  0  0
    3.3399    0.7979   -0.6279 H   0  0  0  0  0  0  0  0  0  0  0  0
    1.7566   -0.6895   -1.8433 H   0  0  0  0  0  0  0  0  0  0  0  0
    1.1873    0.9551   -1.7448 H   0  0  0  0  0  0  0  0  0  0  0  0
    1.2093    0.9931    1.5938 H   0  0  0  0  0  0  0  0  0  0  0  0
    1.6572    2.3114    0.4768 H   0  0  0  0  0  0  0  0  0  0  0  0
    2.8357    1.6577    1.6081 H   0  0  0  0  0  0  0  0  0  0  0  0
    3.7924   -0.7209    1.2292 H   0  0  0  0  0  0  0  0  0  0  0  0
    2.1395   -1.3309    1.2414 H   0  0  0  0  0  0  0  0  0  0  0  0
    3.2077   -1.6766   -0.1355 H   0  0  0  0  0  0  0  0  0  0  0  0
   -1.2569   -3.2707    0.2885 H   0  0  0  0  0  0  0  0  0  0  0  0
   -3.0959   -1.6792    0.9596 H   0  0  0  0  0  0  0  0  0  0  0  0
   -2.0278    2.5019    1.1399 H   0  0  0  0  0  0  0  0  0  0  0  0
   -2.7469    2.3674   -0.5093 H   0  0  0  0  0  0  0  0  0  0  0  0
   -1.5774    3.6438   -0.1362 H   0  0  0  0  0  0  0  0  0  0  0  0
  1  9  1  0  0  0  0
  1 12  1  0  0  0  0
  2  8  2  0  0  0  0
  2 10  1  0  0  0  0
  3  9  2  0  0  0  0
  3 11  1  0  0  0  0
  4  5  1  0  0  0  0
  4  6  1  0  0  0  0
  4  7  1  0  0  0  0
  4 13  1  0  0  0  0
  5  8  1  0  0  0  0
  5 14  1  0  0  0  0
  5 15  1  0  0  0  0
  6 16  1  0  0  0  0
  6 17  1  0  0  0  0
  6 18  1  0  0  0  0
  7 19  1  0  0  0  0
  7 20  1  0  0  0  0
  7 21  1  0  0  0  0
  8  9  1  0  0  0  0
 10 11  2  0  0  0  0
 10 22  1  0  0  0  0
 11 23  1  0  0  0  0
 12 24  1  0  0  0  0
 12 25  1  0  0  0  0
 12 26  1  0  0  0  0
M  END
> <PUBCHEM_COMPOUND_CID>
32594

> <PUBCHEM_CONFORMER_RMSD>
0.6

> <PUBCHEM_CONFORMER_DIVERSEORDER>
1
2
3
4

> <PUBCHEM_MMFF94_PARTIAL_CHARGES>
11
1 -0.36
10 0.16
11 0.16
12 0.28
2 -0.62
22 0.15
23 0.15
3 -0.62
5 0.14
8 0.17
9 0.39

> <PUBCHEM_EFFECTIVE_ROTOR_COUNT>
3

> <PUBCHEM_PHARMACOPHORE_FEATURES>
3
1 2 acceptor
3 4 6 7 hydrophobe
6 2 3 8 9 10 11 rings

> <PUBCHEM_HEAVY_ATOM_COUNT>
12

> <PUBCHEM_ATOM_DEF_STEREO_COUNT>
0

> <PUBCHEM_ATOM_UDEF_STEREO_COUNT>
0

> <PUBCHEM_BOND_DEF_STEREO_COUNT>
0

> <PUBCHEM_BOND_UDEF_STEREO_COUNT>
0

> <PUBCHEM_ISOTOPIC_ATOM_COUNT>
0

> <PUBCHEM_COMPONENT_COUNT>
1

> <PUBCHEM_CACTVS_TAUTO_COUNT>
2

> <PUBCHEM_CONFORMER_ID>
00007F5200000001

> <PUBCHEM_MMFF94_ENERGY>
32.9416

> <PUBCHEM_FEATURE_SELFOVERLAP>
15.223

> <PUBCHEM_SHAPE_FINGERPRINT>
10857977 72 18195529430827502899
12382932 28 18051127287554779520
12524768 44 18056771041995991606
13380535 76 18121494653200948093
15076042 46 18407757032330028314
16945 1 18411142432742353606
193761 8 18049165467048846103
20871998 184 18342181102050324614
21040471 1 18192726543817999421
21524375 3 18051967031039507301
23388829 49 16761966534016633911
23552423 10 17184757329561936863
23559900 14 18055359029687657590
241688 4 18194687187761759067
2748010 2 18196942277684040239
305870 269 17616530653537115129
369184 2 18340481287180719242
5084963 1 17917704699772125882
528862 383 16607431312867330441
54338 74 18264202693926277527
7364860 26 17404578879772423221
81228 2 18408609184001329769

> <PUBCHEM_SHAPE_MULTIPOLES>
231.12
3.66
2.49
0.9
1.74
0.75
-0.04
-0.05
0.87
-1.61
0.21
0.33
0.03
0.24

> <PUBCHEM_SHAPE_SELFOVERLAP>
465.485

> <PUBCHEM_SHAPE_VOLUME>
136.5

> <PUBCHEM_COORDINATE_TYPE>
2
5
10

$$$$
