249286
  -OEChem-05272415263D

 27 28  0     1  0  0  0  0  0999 V2000
   -2.1641   -1.7100   -0.2657 O   0  0  0  0  0  0  0  0  0  0  0  0
    0.6862    0.1023    0.6344 C   0  0  1  0  0  0  0  0  0  0  0  0
   -0.4301    1.2030    0.5419 C   0  0  1  0  0  0  0  0  0  0  0  0
    0.9695    1.5418    0.8772 C   0  0  0  0  0  0  0  0  0  0  0  0
   -1.2888    0.5816   -0.5202 C   0  0  1  0  0  0  0  0  0  0  0  0
   -0.1796   -1.0548    1.0143 C   0  0  0  0  0  0  0  0  0  0  0  0
    1.5561   -0.3161   -0.5359 C   0  0  0  0  0  0  0  0  0  0  0  0
   -1.3380   -0.8600    0.0261 C   0  0  0  0  0  0  0  0  0  0  0  0
   -2.6710    1.2013   -0.6022 C   0  0  0  0  0  0  0  0  0  0  0  0
    2.4453    0.8410   -0.9974 C   0  0  0  0  0  0  0  0  0  0  0  0
    2.4145   -1.5301   -0.1725 C   0  0  0  0  0  0  0  0  0  0  0  0
   -1.0681    1.4012    1.4083 H   0  0  0  0  0  0  0  0  0  0  0  0
    1.1881    1.8058    1.9132 H   0  0  0  0  0  0  0  0  0  0  0  0
    1.3218    2.3507    0.2519 H   0  0  0  0  0  0  0  0  0  0  0  0
   -0.8168    0.6035   -1.5066 H   0  0  0  0  0  0  0  0  0  0  0  0
   -0.5628   -0.9463    2.0353 H   0  0  0  0  0  0  0  0  0  0  0  0
    0.2284   -2.0578    0.9088 H   0  0  0  0  0  0  0  0  0  0  0  0
    0.9541   -0.6157   -1.4022 H   0  0  0  0  0  0  0  0  0  0  0  0
   -3.2717    0.7053   -1.3719 H   0  0  0  0  0  0  0  0  0  0  0  0
   -3.2137    1.1090    0.3454 H   0  0  0  0  0  0  0  0  0  0  0  0
   -2.6053    2.2660   -0.8488 H   0  0  0  0  0  0  0  0  0  0  0  0
    3.1149    1.2271   -0.2198 H   0  0  0  0  0  0  0  0  0  0  0  0
    3.1158    0.4729   -1.7865 H   0  0  0  0  0  0  0  0  0  0  0  0
    1.8830    1.6419   -1.4910 H   0  0  0  0  0  0  0  0  0  0  0  0
    2.8597   -1.4238    0.8229 H   0  0  0  0  0  0  0  0  0  0  0  0
    3.2330   -1.6580   -0.8904 H   0  0  0  0  0  0  0  0  0  0  0  0
    1.8508   -2.4669   -0.2012 H   0  0  0  0  0  0  0  0  0  0  0  0
  1  8  2  0  0  0  0
  2  3  1  0  0  0  0
  2  4  1  0  0  0  0
  2  6  1  0  0  0  0
  2  7  1  0  0  0  0
  3  4  1  0  0  0  0
  3  5  1  0  0  0  0
  3 12  1  0  0  0  0
  4 13  1  0  0  0  0
  4 14  1  0  0  0  0
  5  8  1  0  0  0  0
  5  9  1  0  0  0  0
  5 15  1  0  0  0  0
  6  8  1  0  0  0  0
  6 16  1  0  0  0  0
  6 17  1  0  0  0  0
  7 10  1  0  0  0  0
  7 11  1  0  0  0  0
  7 18  1  0  0  0  0
  9 19  1  0  0  0  0
  9 20  1  0  0  0  0
  9 21  1  0  0  0  0
 10 22  1  0  0  0  0
 10 23  1  0  0  0  0
 10 24  1  0  0  0  0
 11 25  1  0  0  0  0
 11 26  1  0  0  0  0
 11 27  1  0  0  0  0
M  END
> <PUBCHEM_COMPOUND_CID>
249286

> <PUBCHEM_CONFORMER_RMSD>
0.4

> <PUBCHEM_CONFORMER_DIVERSEORDER>
1

> <PUBCHEM_MMFF94_PARTIAL_CHARGES>
11
1 -0.57
12 0.1
13 0.1
14 0.1
2 -0.19
3 -0.19
4 -0.2
5 0.16
6 0.16
7 0.09
8 0.45

> <PUBCHEM_EFFECTIVE_ROTOR_COUNT>
1.6

> <PUBCHEM_PHARMACOPHORE_FEATURES>
3
1 1 acceptor
3 7 10 11 hydrophobe
6 2 3 4 5 6 8 rings

> <PUBCHEM_HEAVY_ATOM_COUNT>
11

> <PUBCHEM_ATOM_DEF_STEREO_COUNT>
3

> <PUBCHEM_ATOM_UDEF_STEREO_COUNT>
0

> <PUBCHEM_BOND_DEF_STEREO_COUNT>
0

> <PUBCHEM_BOND_UDEF_STEREO_COUNT>
0

> <PUBCHEM_ISOTOPIC_ATOM_COUNT>
0

> <PUBCHEM_COMPONENT_COUNT>
1

> <PUBCHEM_CACTVS_TAUTO_COUNT>
3

> <PUBCHEM_CONFORMER_ID>
0003CDC600000001

> <PUBCHEM_MMFF94_ENERGY>
91.1097

> <PUBCHEM_FEATURE_SELFOVERLAP>
15.223

> <PUBCHEM_SHAPE_FINGERPRINT>
10219947 1 8934129582062448229
12423570 1 9985883952018290489
12716758 59 18339074891533618962
12897270 3 18191030207924658110
13024252 1 16952001425193608442
14713566 1 18193556653812226210
161256 15 18196652023925941243
16945 1 18270403784703612160
19837323 101 17458922507904586549
20653085 51 17313968341122878212
21040471 1 18263063458293881793
21501502 16 18409728499364397077
22802520 49 18334019405841290173
23211744 25 18189054351053774608
23552423 10 18260547809843624802
23559900 14 18270391678198607338
2748010 2 18341043111841867217
29004967 10 17704072923379275890
369184 2 18339653252098697642
5084963 1 18114744819874062045

> <PUBCHEM_SHAPE_MULTIPOLES>
220.51
3.39
1.79
1.03
0.11
0.25
0.07
0.14
-1.25
0.12
0.12
-0.18
-0.17
0.07

> <PUBCHEM_SHAPE_SELFOVERLAP>
458.662

> <PUBCHEM_SHAPE_VOLUME>
131.7

> <PUBCHEM_COORDINATE_TYPE>
2
5
10

$$$$
