5363374
  -OEChem-05272415263D

 24 23  0     0  0  0  0  0  0999 V2000
   -1.4586    0.4347    0.4117 O   0  0  0  0  0  0  0  0  0  0  0  0
   -2.5620   -0.7560   -1.2320 O   0  0  0  0  0  0  0  0  0  0  0  0
    2.4417    0.3046   -0.4237 C   0  0  0  0  0  0  0  0  0  0  0  0
    2.4666   -0.8805    0.5418 C   0  0  0  0  0  0  0  0  0  0  0  0
    1.8002    1.5066    0.2065 C   0  0  0  0  0  0  0  0  0  0  0  0
    3.1398   -2.0925   -0.0831 C   0  0  0  0  0  0  0  0  0  0  0  0
    0.4852    1.7644    0.1536 C   0  0  0  0  0  0  0  0  0  0  0  0
   -0.5048    0.8864   -0.5394 C   0  0  0  0  0  0  0  0  0  0  0  0
   -2.4402   -0.3862   -0.0721 C   0  0  0  0  0  0  0  0  0  0  0  0
   -3.3678   -0.7815    1.0366 C   0  0  0  0  0  0  0  0  0  0  0  0
    3.4720    0.5783   -0.6867 H   0  0  0  0  0  0  0  0  0  0  0  0
    1.9720    0.0321   -1.3743 H   0  0  0  0  0  0  0  0  0  0  0  0
    1.4459   -1.1542    0.8348 H   0  0  0  0  0  0  0  0  0  0  0  0
    3.0017   -0.6072    1.4595 H   0  0  0  0  0  0  0  0  0  0  0  0
    2.4470    2.1925    0.7473 H   0  0  0  0  0  0  0  0  0  0  0  0
    3.1490   -2.9277    0.6242 H   0  0  0  0  0  0  0  0  0  0  0  0
    2.6074   -2.4157   -0.9834 H   0  0  0  0  0  0  0  0  0  0  0  0
    4.1755   -1.8680   -0.3574 H   0  0  0  0  0  0  0  0  0  0  0  0
    0.1074    2.6578    0.6437 H   0  0  0  0  0  0  0  0  0  0  0  0
   -1.0171    1.4834   -1.3036 H   0  0  0  0  0  0  0  0  0  0  0  0
   -0.0623    0.0174   -1.0310 H   0  0  0  0  0  0  0  0  0  0  0  0
   -3.8408    0.1087    1.4589 H   0  0  0  0  0  0  0  0  0  0  0  0
   -2.8144   -1.3256    1.8061 H   0  0  0  0  0  0  0  0  0  0  0  0
   -4.1490   -1.4363    0.6401 H   0  0  0  0  0  0  0  0  0  0  0  0
  1  8  1  0  0  0  0
  1  9  1  0  0  0  0
  2  9  2  0  0  0  0
  3  4  1  0  0  0  0
  3  5  1  0  0  0  0
  3 11  1  0  0  0  0
  3 12  1  0  0  0  0
  4  6  1  0  0  0  0
  4 13  1  0  0  0  0
  4 14  1  0  0  0  0
  5  7  2  0  0  0  0
  5 15  1  0  0  0  0
  6 16  1  0  0  0  0
  6 17  1  0  0  0  0
  6 18  1  0  0  0  0
  7  8  1  0  0  0  0
  7 19  1  0  0  0  0
  8 20  1  0  0  0  0
  8 21  1  0  0  0  0
  9 10  1  0  0  0  0
 10 22  1  0  0  0  0
 10 23  1  0  0  0  0
 10 24  1  0  0  0  0
M  END
> <PUBCHEM_COMPOUND_CID>
5363374

> <PUBCHEM_CONFORMER_RMSD>
0.6

> <PUBCHEM_CONFORMER_DIVERSEORDER>
3
119
175
11
171
7
197
182
54
90
35
191
111
155
85
148
22
103
66
179
78
34
121
98
91
67
63
133
196
42
107
71
114
166
97
184
113
118
173
2
125
76
108
176
153
75
165
93
6
115
58
62
88
20
50
79
186
194
10
169
65
77
149
116
187
117
96
1
147
146
9
198
14
64
142
101
73
102
19
185
195
140
57
52
167
33
21
38
37
129
27
100
31
150
120
162
178
128
48
84
51
190
72
183
181
55
174
82
180
68
130
170
99
80
36
106
160
4
136
145
161
156
32
105
39
28
24
45
134
18
141
109
138
83
61
46
25
154
126
157
192
74
122
8
86
44
92
104
81
110
59
5
56
163
143
70
17
189
47
15
112
158
41
168
40
127
137
89
172
131
53
60
164
152
95
135
69
29
159
188
123
43
124
151
30
139
94
23
177
16
132
144
87
26
49
13
193
12

> <PUBCHEM_MMFF94_PARTIAL_CHARGES>
10
1 -0.43
10 0.06
15 0.15
19 0.15
2 -0.57
3 0.14
5 -0.29
7 -0.29
8 0.42
9 0.66

> <PUBCHEM_EFFECTIVE_ROTOR_COUNT>
5

> <PUBCHEM_PHARMACOPHORE_FEATURES>
2
1 2 acceptor
1 6 hydrophobe

> <PUBCHEM_HEAVY_ATOM_COUNT>
10

> <PUBCHEM_ATOM_DEF_STEREO_COUNT>
0

> <PUBCHEM_ATOM_UDEF_STEREO_COUNT>
0

> <PUBCHEM_BOND_DEF_STEREO_COUNT>
1

> <PUBCHEM_BOND_UDEF_STEREO_COUNT>
0

> <PUBCHEM_ISOTOPIC_ATOM_COUNT>
0

> <PUBCHEM_COMPONENT_COUNT>
1

> <PUBCHEM_CACTVS_TAUTO_COUNT>
1

> <PUBCHEM_CONFORMER_ID>
0051D6AE00000003

> <PUBCHEM_MMFF94_ENERGY>
4.6338

> <PUBCHEM_FEATURE_SELFOVERLAP>
10.148

> <PUBCHEM_SHAPE_FINGERPRINT>
10149128 111 8286198370487487054
10857977 72 14620236420264698917
12932764 1 18130792321078495965
14390081 3 9295287252753299569
19766037 51 18189635885520953366
20201158 50 18260545645295983426
20645477 70 18336536205374775543
20653085 51 7925625656998918740
20711985 344 17679285395672391276
20871998 22 18340491062963803554
21028194 46 10303805505949106268
23500284 5 18267308621043388794
23552423 10 18196371639792094917
94968 8 18260556648870508842

> <PUBCHEM_SHAPE_MULTIPOLES>
194.06
5.8
1.95
0.93
1.76
0.09
-0.07
3.58
0.47
-1.65
0.09
0.55
0.15
0.11

> <PUBCHEM_SHAPE_SELFOVERLAP>
355.899

> <PUBCHEM_SHAPE_VOLUME>
123.1

> <PUBCHEM_COORDINATE_TYPE>
2
5
10

$$$$
