31251
  -OEChem-05272415263D

 35 34  0     0  0  0  0  0  0999 V2000
   -4.0809    0.4611   -0.0044 O   0  0  0  0  0  0  0  0  0  0  0  0
   -2.9534   -1.5536    0.0230 O   0  0  0  0  0  0  0  0  0  0  0  0
    2.0801   -0.2957    0.0043 C   0  0  0  0  0  0  0  0  0  0  0  0
    3.3742    0.5234    0.0065 C   0  0  0  0  0  0  0  0  0  0  0  0
    0.8152    0.5648    0.0575 C   0  0  0  0  0  0  0  0  0  0  0  0
    4.6384   -0.3354   -0.0724 C   0  0  0  0  0  0  0  0  0  0  0  0
   -0.4464   -0.3049    0.0401 C   0  0  0  0  0  0  0  0  0  0  0  0
    5.8990    0.5267    0.0066 C   0  0  0  0  0  0  0  0  0  0  0  0
   -1.7270    0.5248    0.0619 C   0  0  0  0  0  0  0  0  0  0  0  0
    7.1590   -0.3235   -0.0326 C   0  0  0  0  0  0  0  0  0  0  0  0
   -2.9702   -0.3294    0.0261 C   0  0  0  0  0  0  0  0  0  0  0  0
   -5.3308   -0.2346   -0.0432 C   0  0  0  0  0  0  0  0  0  0  0  0
   -6.4571    0.7763   -0.0735 C   0  0  0  0  0  0  0  0  0  0  0  0
    2.0886   -0.9806    0.8613 H   0  0  0  0  0  0  0  0  0  0  0  0
    2.0550   -0.9188   -0.8984 H   0  0  0  0  0  0  0  0  0  0  0  0
    3.4054    1.1325    0.9186 H   0  0  0  0  0  0  0  0  0  0  0  0
    3.3598    1.2217   -0.8396 H   0  0  0  0  0  0  0  0  0  0  0  0
    0.8018    1.2493   -0.7991 H   0  0  0  0  0  0  0  0  0  0  0  0
    0.8261    1.1801    0.9650 H   0  0  0  0  0  0  0  0  0  0  0  0
    4.6366   -0.9072   -1.0081 H   0  0  0  0  0  0  0  0  0  0  0  0
    4.6379   -1.0609    0.7502 H   0  0  0  0  0  0  0  0  0  0  0  0
   -0.4339   -0.9829    0.9030 H   0  0  0  0  0  0  0  0  0  0  0  0
   -0.4388   -0.9398   -0.8551 H   0  0  0  0  0  0  0  0  0  0  0  0
    5.9166    1.2374   -0.8279 H   0  0  0  0  0  0  0  0  0  0  0  0
    5.8925    1.1135    0.9327 H   0  0  0  0  0  0  0  0  0  0  0  0
   -1.7577    1.1324    0.9732 H   0  0  0  0  0  0  0  0  0  0  0  0
   -1.7469    1.1899   -0.8088 H   0  0  0  0  0  0  0  0  0  0  0  0
    7.2129   -0.9017   -0.9606 H   0  0  0  0  0  0  0  0  0  0  0  0
    7.1875   -1.0219    0.8099 H   0  0  0  0  0  0  0  0  0  0  0  0
    8.0476    0.3129    0.0234 H   0  0  0  0  0  0  0  0  0  0  0  0
   -5.4247   -0.8669    0.8467 H   0  0  0  0  0  0  0  0  0  0  0  0
   -5.3720   -0.8616   -0.9409 H   0  0  0  0  0  0  0  0  0  0  0  0
   -7.4297    0.2774   -0.1036 H   0  0  0  0  0  0  0  0  0  0  0  0
   -6.4185    1.4228    0.8094 H   0  0  0  0  0  0  0  0  0  0  0  0
   -6.3667    1.4280   -0.9488 H   0  0  0  0  0  0  0  0  0  0  0  0
  1 11  1  0  0  0  0
  1 12  1  0  0  0  0
  2 11  2  0  0  0  0
  3  4  1  0  0  0  0
  3  5  1  0  0  0  0
  3 14  1  0  0  0  0
  3 15  1  0  0  0  0
  4  6  1  0  0  0  0
  4 16  1  0  0  0  0
  4 17  1  0  0  0  0
  5  7  1  0  0  0  0
  5 18  1  0  0  0  0
  5 19  1  0  0  0  0
  6  8  1  0  0  0  0
  6 20  1  0  0  0  0
  6 21  1  0  0  0  0
  7  9  1  0  0  0  0
  7 22  1  0  0  0  0
  7 23  1  0  0  0  0
  8 10  1  0  0  0  0
  8 24  1  0  0  0  0
  8 25  1  0  0  0  0
  9 11  1  0  0  0  0
  9 26  1  0  0  0  0
  9 27  1  0  0  0  0
 10 28  1  0  0  0  0
 10 29  1  0  0  0  0
 10 30  1  0  0  0  0
 12 13  1  0  0  0  0
 12 31  1  0  0  0  0
 12 32  1  0  0  0  0
 13 33  1  0  0  0  0
 13 34  1  0  0  0  0
 13 35  1  0  0  0  0
M  END
> <PUBCHEM_COMPOUND_CID>
31251

> <PUBCHEM_CONFORMER_RMSD>
1

> <PUBCHEM_CONFORMER_DIVERSEORDER>
1
511
74
46
349
18
422
35
17
47
4
236
16
429
66
58
213
181
7
250
332
39
255
6
162
464
100
461
23
182
187
9
94
481
247
518
2
416
318
465
72
212
411
147
228
120
85
89
88
62
8
76
527
333
3
366
288
505
11
276
221
86
129
124
269
99
260
180
519
44
364
226
275
257
348
107
514
13
291
29
115
300
189
119
246
105
42
194
285

> <PUBCHEM_MMFF94_PARTIAL_CHARGES>
5
1 -0.43
11 0.66
12 0.28
2 -0.57
9 0.06

> <PUBCHEM_EFFECTIVE_ROTOR_COUNT>
9

> <PUBCHEM_PHARMACOPHORE_FEATURES>
2
1 10 hydrophobe
1 2 acceptor

> <PUBCHEM_HEAVY_ATOM_COUNT>
13

> <PUBCHEM_ATOM_DEF_STEREO_COUNT>
0

> <PUBCHEM_ATOM_UDEF_STEREO_COUNT>
0

> <PUBCHEM_BOND_DEF_STEREO_COUNT>
0

> <PUBCHEM_BOND_UDEF_STEREO_COUNT>
0

> <PUBCHEM_ISOTOPIC_ATOM_COUNT>
0

> <PUBCHEM_COMPONENT_COUNT>
1

> <PUBCHEM_CACTVS_TAUTO_COUNT>
1

> <PUBCHEM_CONFORMER_ID>
00007A1300000001

> <PUBCHEM_MMFF94_ENERGY>
0.056

> <PUBCHEM_FEATURE_SELFOVERLAP>
10.148

> <PUBCHEM_SHAPE_FINGERPRINT>
10968037 39 18412545418501431837
11315181 36 17775289390942827715
12091667 2 18408604764928128209
12815109 37 18411419513898747180
13533116 47 17703508784226997822
1420 363 18060423517171755310
14251764 46 18410855460133443045
15242439 84 18202562899388782304
17834072 8 18342457045093080196
17834076 25 18410292510174753476
20281389 69 18187080650626180588
20621476 8 18334295327520304228
20645477 70 17202773592192662598
220451 1 16153705440685662234
22224240 67 14979950368460129660
23035841 295 18260265248545942106
23218964 4 18410292510195936940
23402539 116 18342452668647986902
23521765 1 18341895190351012068
23559900 14 18200868581998448464
33684 2 18412824677570436277
3545911 37 18410573980856490338
42788 4 18411138043686560680
4463277 17 18335138695772735484
57583515 80 17632578249303838179
59755656 520 16805039640194916899
8209 1 18413670210111650181

> <PUBCHEM_SHAPE_MULTIPOLES>
255.8
18.61
0.94
0.6
7.57
0.14
0
-1.19
0.53
-0.51
0
0.05
-0.01
0.05

> <PUBCHEM_SHAPE_SELFOVERLAP>
462.678

> <PUBCHEM_SHAPE_VOLUME>
164.6

> <PUBCHEM_COORDINATE_TYPE>
2
5
10

$$$$
