6877
  -OEChem-05272415263D

 23 23  0     0  0  0  0  0  0999 V2000
    1.8850    0.3587   -0.1074 O   0  0  0  0  0  0  0  0  0  0  0  0
    1.2029   -1.7123    0.6308 O   0  0  0  0  0  0  0  0  0  0  0  0
   -1.3162   -2.2376   -0.3703 N   0  0  0  0  0  0  0  0  0  0  0  0
   -0.4057   -0.0262    0.1266 C   0  0  0  0  0  0  0  0  0  0  0  0
   -1.4910   -0.8493   -0.1746 C   0  0  0  0  0  0  0  0  0  0  0  0
   -0.5996    1.3422    0.3156 C   0  0  0  0  0  0  0  0  0  0  0  0
   -2.7699   -0.3038   -0.2868 C   0  0  0  0  0  0  0  0  0  0  0  0
    0.9429   -0.5649    0.2507 C   0  0  0  0  0  0  0  0  0  0  0  0
   -1.8786    1.8875    0.2033 C   0  0  0  0  0  0  0  0  0  0  0  0
    3.2538   -0.0536   -0.0287 C   0  0  0  0  0  0  0  0  0  0  0  0
   -2.9638    1.0645   -0.0980 C   0  0  0  0  0  0  0  0  0  0  0  0
    4.1403    1.0948   -0.4611 C   0  0  0  0  0  0  0  0  0  0  0  0
    0.2210    2.0095    0.5657 H   0  0  0  0  0  0  0  0  0  0  0  0
   -3.6245   -0.9336   -0.5210 H   0  0  0  0  0  0  0  0  0  0  0  0
    3.4894   -0.3369    1.0030 H   0  0  0  0  0  0  0  0  0  0  0  0
    3.4127   -0.9143   -0.6876 H   0  0  0  0  0  0  0  0  0  0  0  0
   -2.0305    2.9523    0.3536 H   0  0  0  0  0  0  0  0  0  0  0  0
   -3.9597    1.4891   -0.1846 H   0  0  0  0  0  0  0  0  0  0  0  0
    5.1959    0.8138   -0.4127 H   0  0  0  0  0  0  0  0  0  0  0  0
    3.9022    1.4008   -1.4853 H   0  0  0  0  0  0  0  0  0  0  0  0
    3.9771    1.9691    0.1777 H   0  0  0  0  0  0  0  0  0  0  0  0
   -0.3998   -2.6587   -0.3072 H   0  0  0  0  0  0  0  0  0  0  0  0
   -2.1158   -2.8172   -0.5894 H   0  0  0  0  0  0  0  0  0  0  0  0
  1  8  1  0  0  0  0
  1 10  1  0  0  0  0
  2  8  2  0  0  0  0
  3  5  1  0  0  0  0
  3 22  1  0  0  0  0
  3 23  1  0  0  0  0
  4  5  1  0  0  0  0
  4  6  2  0  0  0  0
  4  8  1  0  0  0  0
  5  7  2  0  0  0  0
  6  9  1  0  0  0  0
  6 13  1  0  0  0  0
  7 11  1  0  0  0  0
  7 14  1  0  0  0  0
  9 11  2  0  0  0  0
  9 17  1  0  0  0  0
 10 12  1  0  0  0  0
 10 15  1  0  0  0  0
 10 16  1  0  0  0  0
 11 18  1  0  0  0  0
 12 19  1  0  0  0  0
 12 20  1  0  0  0  0
 12 21  1  0  0  0  0
M  END
> <PUBCHEM_COMPOUND_CID>
6877

> <PUBCHEM_CONFORMER_RMSD>
0.6

> <PUBCHEM_CONFORMER_DIVERSEORDER>
1
10
18
15
19
14
5
6
2
21
3
20
8
4
7
13
9
16
12
11
17

> <PUBCHEM_MMFF94_PARTIAL_CHARGES>
17
1 -0.43
10 0.28
11 -0.15
13 0.15
14 0.15
17 0.15
18 0.15
2 -0.57
22 0.4
23 0.4
3 -0.9
4 0.09
5 0.1
6 -0.15
7 -0.15
8 0.63
9 -0.15

> <PUBCHEM_EFFECTIVE_ROTOR_COUNT>
3

> <PUBCHEM_PHARMACOPHORE_FEATURES>
4
1 2 acceptor
1 3 cation
1 3 donor
6 4 5 6 7 9 11 rings

> <PUBCHEM_HEAVY_ATOM_COUNT>
12

> <PUBCHEM_ATOM_DEF_STEREO_COUNT>
0

> <PUBCHEM_ATOM_UDEF_STEREO_COUNT>
0

> <PUBCHEM_BOND_DEF_STEREO_COUNT>
0

> <PUBCHEM_BOND_UDEF_STEREO_COUNT>
0

> <PUBCHEM_ISOTOPIC_ATOM_COUNT>
0

> <PUBCHEM_COMPONENT_COUNT>
1

> <PUBCHEM_CACTVS_TAUTO_COUNT>
2

> <PUBCHEM_CONFORMER_ID>
00001ADD00000001

> <PUBCHEM_MMFF94_ENERGY>
40.7254

> <PUBCHEM_FEATURE_SELFOVERLAP>
20.297

> <PUBCHEM_SHAPE_FINGERPRINT>
12716758 59 18272369763197187506
12897270 3 18413668028236543792
12932764 1 17560790031145830626
13024252 1 17749110019386154635
13380535 21 18341059522949081914
13380535 76 18340484474104572646
14325111 11 18409450267520667464
14897335 6 18336823109158259162
15669948 3 18341323478944109222
15775835 57 18336551520980304360
16945 1 18340757213280969905
193761 8 17835796774703791649
20828058 34 18409451392654295636
20871998 184 18130229362577286503
23402539 116 18343291583003137988
23552423 10 18121776123888297459
23559900 14 18273214210525393472
2748010 2 18195246616116252101
369184 2 16153425026106995777
53812653 8 18411417280726723961
6333449 129 18342174479258038281
7364860 26 18197214737793714010

> <PUBCHEM_SHAPE_MULTIPOLES>
230.23
5.62
1.91
0.68
5.43
0.37
0
-1.99
0.92
-0.77
-0.04
0.05
0.01
-0.45

> <PUBCHEM_SHAPE_SELFOVERLAP>
474.641

> <PUBCHEM_SHAPE_VOLUME>
132.8

> <PUBCHEM_COORDINATE_TYPE>
2
5
10

$$$$
