125098
  -OEChem-05272415263D

 39 39  0     1  0  0  0  0  0999 V2000
   -1.2771   -0.6325   -0.0514 O   0  0  0  0  0  0  0  0  0  0  0  0
    2.1967   -3.4324    0.5554 O   0  0  0  0  0  0  0  0  0  0  0  0
   -1.0459    0.4959    1.9226 O   0  0  0  0  0  0  0  0  0  0  0  0
    0.6861    0.5073    0.3657 N   0  0  0  0  0  0  0  0  0  0  0  0
    1.2884   -0.0775   -0.8518 C   0  0  1  0  0  0  0  0  0  0  0  0
    2.0710    0.9755   -1.6502 C   0  0  0  0  0  0  0  0  0  0  0  0
    3.0308    1.7850   -0.7835 C   0  0  0  0  0  0  0  0  0  0  0  0
    2.2858    2.4041    0.3932 C   0  0  0  0  0  0  0  0  0  0  0  0
    1.5525    1.3424    1.2027 C   0  0  0  0  0  0  0  0  0  0  0  0
    2.1452   -1.2963   -0.5001 C   0  0  0  0  0  0  0  0  0  0  0  0
   -0.5869    0.1522    0.8347 C   0  0  0  0  0  0  0  0  0  0  0  0
    1.3398   -2.3421    0.2462 C   0  0  0  0  0  0  0  0  0  0  0  0
   -2.7038   -0.5106   -0.0246 C   0  0  1  0  0  0  0  0  0  0  0  0
   -3.0889    0.9382   -0.3306 C   0  0  0  0  0  0  0  0  0  0  0  0
   -3.2986   -1.4673   -1.0491 C   0  0  0  0  0  0  0  0  0  0  0  0
   -4.5952    1.1581   -0.2791 C   0  0  0  0  0  0  0  0  0  0  0  0
    0.4834   -0.4283   -1.5084 H   0  0  0  0  0  0  0  0  0  0  0  0
    1.3535    1.6695   -2.1080 H   0  0  0  0  0  0  0  0  0  0  0  0
    2.6185    0.5037   -2.4742 H   0  0  0  0  0  0  0  0  0  0  0  0
    3.4928    2.5760   -1.3850 H   0  0  0  0  0  0  0  0  0  0  0  0
    3.8433    1.1466   -0.4183 H   0  0  0  0  0  0  0  0  0  0  0  0
    2.9884    2.9441    1.0375 H   0  0  0  0  0  0  0  0  0  0  0  0
    1.5627    3.1383    0.0164 H   0  0  0  0  0  0  0  0  0  0  0  0
    2.2683    0.6762    1.6981 H   0  0  0  0  0  0  0  0  0  0  0  0
    0.9665    1.8252    1.9918 H   0  0  0  0  0  0  0  0  0  0  0  0
    3.0115   -1.0133    0.1101 H   0  0  0  0  0  0  0  0  0  0  0  0
    2.5618   -1.7380   -1.4142 H   0  0  0  0  0  0  0  0  0  0  0  0
    0.9597   -1.9738    1.2012 H   0  0  0  0  0  0  0  0  0  0  0  0
    0.5030   -2.7180   -0.3505 H   0  0  0  0  0  0  0  0  0  0  0  0
   -3.0597   -0.8055    0.9706 H   0  0  0  0  0  0  0  0  0  0  0  0
   -2.6277    1.6316    0.3802 H   0  0  0  0  0  0  0  0  0  0  0  0
   -2.7043    1.2312   -1.3156 H   0  0  0  0  0  0  0  0  0  0  0  0
   -3.0119   -1.1814   -2.0672 H   0  0  0  0  0  0  0  0  0  0  0  0
   -2.9071   -2.4785   -0.8899 H   0  0  0  0  0  0  0  0  0  0  0  0
   -4.3890   -1.5157   -0.9878 H   0  0  0  0  0  0  0  0  0  0  0  0
    2.5136   -3.8052   -0.2849 H   0  0  0  0  0  0  0  0  0  0  0  0
   -5.0124    0.8159    0.6732 H   0  0  0  0  0  0  0  0  0  0  0  0
   -5.1095    0.6408   -1.0941 H   0  0  0  0  0  0  0  0  0  0  0  0
   -4.8188    2.2253   -0.3805 H   0  0  0  0  0  0  0  0  0  0  0  0
  1 11  1  0  0  0  0
  1 13  1  0  0  0  0
  2 12  1  0  0  0  0
  2 36  1  0  0  0  0
  3 11  2  0  0  0  0
  4  5  1  0  0  0  0
  4  9  1  0  0  0  0
  4 11  1  0  0  0  0
  5  6  1  0  0  0  0
  5 10  1  0  0  0  0
  5 17  1  0  0  0  0
  6  7  1  0  0  0  0
  6 18  1  0  0  0  0
  6 19  1  0  0  0  0
  7  8  1  0  0  0  0
  7 20  1  0  0  0  0
  7 21  1  0  0  0  0
  8  9  1  0  0  0  0
  8 22  1  0  0  0  0
  8 23  1  0  0  0  0
  9 24  1  0  0  0  0
  9 25  1  0  0  0  0
 10 12  1  0  0  0  0
 10 26  1  0  0  0  0
 10 27  1  0  0  0  0
 12 28  1  0  0  0  0
 12 29  1  0  0  0  0
 13 14  1  0  0  0  0
 13 15  1  0  0  0  0
 13 30  1  0  0  0  0
 14 16  1  0  0  0  0
 14 31  1  0  0  0  0
 14 32  1  0  0  0  0
 15 33  1  0  0  0  0
 15 34  1  0  0  0  0
 15 35  1  0  0  0  0
 16 37  1  0  0  0  0
 16 38  1  0  0  0  0
 16 39  1  0  0  0  0
M  END
> <PUBCHEM_COMPOUND_CID>
125098

> <PUBCHEM_CONFORMER_RMSD>
0.8

> <PUBCHEM_CONFORMER_DIVERSEORDER>
1
178
179
151
103
104
135
29
119
132
82
166
16
161
111
143
123
187
31
59
168
136
114
154
189
188
144
38
115
113
69
86
122
107
142
56
116
89
32
88
95
49
4
146
84
191
15
112
14
46
134
67
54
64
150
158
30
44
22
97
98
108
174
101
43
57
128
164
66
7
133
169
53
171
153
21
170
94
182
160
75
131
109
76
102
186
110
93
72
140
163
175
165
20
183
157
68
6
126
35
120
23
145
92
156
40
25
58
190
71
60
138
2
39
147
185
79
91
124
24
121
130
70
148
3
34
8
73
11
45
80
159
137
125
47
117
26
90
28
78
17
172
155
36
149
61
99
10
33
48
12
100
5
74
18
27
65
81
106
51
37
127
167
173
129
13
162
52
83
50
141
77
19
181
152
42
139
87
9
62
105
184
63
41
176
96
55
180
177
85
118

> <PUBCHEM_MMFF94_PARTIAL_CHARGES>
10
1 -0.43
11 0.78
12 0.28
13 0.28
2 -0.68
3 -0.57
36 0.4
4 -0.66
5 0.3
9 0.3

> <PUBCHEM_EFFECTIVE_ROTOR_COUNT>
7.2

> <PUBCHEM_PHARMACOPHORE_FEATURES>
5
1 16 hydrophobe
1 2 acceptor
1 2 donor
1 3 acceptor
6 4 5 6 7 8 9 rings

> <PUBCHEM_HEAVY_ATOM_COUNT>
16

> <PUBCHEM_ATOM_DEF_STEREO_COUNT>
0

> <PUBCHEM_ATOM_UDEF_STEREO_COUNT>
2

> <PUBCHEM_BOND_DEF_STEREO_COUNT>
0

> <PUBCHEM_BOND_UDEF_STEREO_COUNT>
0

> <PUBCHEM_ISOTOPIC_ATOM_COUNT>
0

> <PUBCHEM_COMPONENT_COUNT>
1

> <PUBCHEM_CACTVS_TAUTO_COUNT>
1

> <PUBCHEM_CONFORMER_ID>
0001E8AA00000001

> <PUBCHEM_MMFF94_ENERGY>
22.0057

> <PUBCHEM_FEATURE_SELFOVERLAP>
25.371

> <PUBCHEM_SHAPE_FINGERPRINT>
11265709 11 17976539408251099042
11715629 250 18333446560716203653
12138202 97 17763757876700740364
12730499 353 18336839670916169161
12932764 1 18201164338252906415
13004483 165 17615955626320598810
13294875 104 18272922860791011608
14817 1 14003026263892217738
15852999 172 17969500600892067962
16945 1 17273437151510118052
18186145 218 18059306472960229109
18410436 195 18122057603201978502
19765921 60 18056756748402683664
20645477 70 18202004322176532615
20671657 1 18340202995165035125
21501502 16 18343011199581324399
22112679 90 17629224627238576186
22802520 49 17823152145833758061
23419403 2 17691928645942052544
23526113 38 17486216909196110376
23532345 88 18337101285500100391
23557571 272 17460325575379093043
23598291 2 17986129434372442521
251288 83 10663804270421648613
257057 1 17904478502872279706
2871803 45 17913481617697544711
305870 269 18336260240687923260
58051976 378 18124590048952825799
6338986 31 18050004389962406578
7364860 26 18410007693887676774
74978 22 18201721717607358019
81228 2 17327467917361265082
84936 182 18413108376755085728

> <PUBCHEM_SHAPE_MULTIPOLES>
306.68
6.24
2.77
1.32
7.05
2.09
0.1
-2
-1.75
-2.46
0.37
-0.35
-0.28
-0.52

> <PUBCHEM_SHAPE_SELFOVERLAP>
595.441

> <PUBCHEM_SHAPE_VOLUME>
184.9

> <PUBCHEM_COORDINATE_TYPE>
2
5
10

$$$$
