62098
  -OEChem-05272415253D

 26 27  0     0  0  0  0  0  0999 V2000
    2.8783   -1.6439    0.0929 O   0  0  0  0  0  0  0  0  0  0  0  0
    3.7934    0.5211   -0.4389 O   0  0  0  0  0  0  0  0  0  0  0  0
   -4.4453   -0.1321    0.9846 O   0  0  0  0  0  0  0  0  0  0  0  0
   -1.6594    0.1789    0.7743 C   0  0  0  0  0  0  0  0  0  0  0  0
   -0.2094    0.3066    0.4457 C   0  0  0  0  0  0  0  0  0  0  0  0
   -2.5146   -0.0839   -0.4705 C   0  0  0  0  0  0  0  0  0  0  0  0
    1.9388   -0.6602    0.1384 C   0  0  0  0  0  0  0  0  0  0  0  0
    0.6049   -0.8284    0.4485 C   0  0  0  0  0  0  0  0  0  0  0  0
    2.4615    0.5760   -0.1651 C   0  0  0  0  0  0  0  0  0  0  0  0
    0.3246    1.5697    0.1355 C   0  0  0  0  0  0  0  0  0  0  0  0
    1.6791    1.7124   -0.1752 C   0  0  0  0  0  0  0  0  0  0  0  0
    4.0506   -0.8882   -0.2741 C   0  0  0  0  0  0  0  0  0  0  0  0
   -3.9958   -0.2044   -0.1580 C   0  0  0  0  0  0  0  0  0  0  0  0
   -4.9068   -0.4234   -1.3379 C   0  0  0  0  0  0  0  0  0  0  0  0
   -1.8053   -0.6282    1.5045 H   0  0  0  0  0  0  0  0  0  0  0  0
   -2.0071    1.0888    1.2812 H   0  0  0  0  0  0  0  0  0  0  0  0
   -2.1978   -1.0146   -0.9555 H   0  0  0  0  0  0  0  0  0  0  0  0
   -2.3900    0.7343   -1.1897 H   0  0  0  0  0  0  0  0  0  0  0  0
    0.2082   -1.8102    0.6840 H   0  0  0  0  0  0  0  0  0  0  0  0
   -0.3138    2.4499    0.1326 H   0  0  0  0  0  0  0  0  0  0  0  0
    2.0947    2.6844   -0.4151 H   0  0  0  0  0  0  0  0  0  0  0  0
    4.4435   -1.2859   -1.2169 H   0  0  0  0  0  0  0  0  0  0  0  0
    4.8098   -1.0177    0.5058 H   0  0  0  0  0  0  0  0  0  0  0  0
   -5.9426   -0.4985   -0.9955 H   0  0  0  0  0  0  0  0  0  0  0  0
   -4.8229    0.4205   -2.0271 H   0  0  0  0  0  0  0  0  0  0  0  0
   -4.6338   -1.3528   -1.8438 H   0  0  0  0  0  0  0  0  0  0  0  0
  1  7  1  0  0  0  0
  1 12  1  0  0  0  0
  2  9  1  0  0  0  0
  2 12  1  0  0  0  0
  3 13  2  0  0  0  0
  4  5  1  0  0  0  0
  4  6  1  0  0  0  0
  4 15  1  0  0  0  0
  4 16  1  0  0  0  0
  5  8  2  0  0  0  0
  5 10  1  0  0  0  0
  6 13  1  0  0  0  0
  6 17  1  0  0  0  0
  6 18  1  0  0  0  0
  7  8  1  0  0  0  0
  7  9  2  0  0  0  0
  8 19  1  0  0  0  0
  9 11  1  0  0  0  0
 10 11  2  0  0  0  0
 10 20  1  0  0  0  0
 11 21  1  0  0  0  0
 12 22  1  0  0  0  0
 12 23  1  0  0  0  0
 13 14  1  0  0  0  0
 14 24  1  0  0  0  0
 14 25  1  0  0  0  0
 14 26  1  0  0  0  0
M  END
> <PUBCHEM_COMPOUND_CID>
62098

> <PUBCHEM_CONFORMER_RMSD>
0.6

> <PUBCHEM_CONFORMER_DIVERSEORDER>
1
13
23
20
15
9
10
6
14
8
7
21
3
18
16
19
17
12
2
24
5
22
4
11

> <PUBCHEM_MMFF94_PARTIAL_CHARGES>
17
1 -0.36
10 -0.15
11 -0.15
12 0.56
13 0.45
14 0.06
19 0.15
2 -0.36
20 0.15
21 0.15
3 -0.57
4 0.14
5 -0.14
6 0.06
7 0.08
8 -0.15
9 0.08

> <PUBCHEM_EFFECTIVE_ROTOR_COUNT>
3.6

> <PUBCHEM_PHARMACOPHORE_FEATURES>
5
1 1 acceptor
1 2 acceptor
1 3 acceptor
5 1 2 7 9 12 rings
6 5 7 8 9 10 11 rings

> <PUBCHEM_HEAVY_ATOM_COUNT>
14

> <PUBCHEM_ATOM_DEF_STEREO_COUNT>
0

> <PUBCHEM_ATOM_UDEF_STEREO_COUNT>
0

> <PUBCHEM_BOND_DEF_STEREO_COUNT>
0

> <PUBCHEM_BOND_UDEF_STEREO_COUNT>
0

> <PUBCHEM_ISOTOPIC_ATOM_COUNT>
0

> <PUBCHEM_COMPONENT_COUNT>
1

> <PUBCHEM_CACTVS_TAUTO_COUNT>
3

> <PUBCHEM_CONFORMER_ID>
0000F29200000001

> <PUBCHEM_MMFF94_ENERGY>
28.0812

> <PUBCHEM_FEATURE_SELFOVERLAP>
25.527

> <PUBCHEM_SHAPE_FINGERPRINT>
10498660 4 15937233522663234381
11401426 45 18408880763415465096
11471102 20 18335420188060917788
11806522 49 18343017804771442648
12236239 1 17917717902918299417
12251169 10 11455884780491207565
13690532 89 18341613694031535126
13760787 5 18412548717031098821
14251717 144 18410572890035231870
14576447 43 18271800259049969135
14911166 2 18333457547194703398
14993402 34 18343587347536606166
15477762 27 18411981364556844614
15757776 16 18409728439535710706
16945 1 18335435573087524256
18186145 218 17749106690944905361
18915474 69 18059567053242779079
19422 9 18059575832287599167
200 152 18342739602459519873
20645477 70 18408042900910927483
21256008 61 18342454859076117248
21501925 9 18410849937301346912
21637258 2 16702024115661719358
221357 26 18261941991310500797
221490 88 18191593166558074515
23402539 116 18059853935356422685
23402655 69 18335416859651239133
23557571 272 14692308196179189569
23559900 14 17167861950648276514
2748010 2 17903937878359147728
276578 36 8286199461456685324
2871803 45 18260827064200677310
29717793 49 17847058883413066653
3060560 45 18333725827684098022
4072396 5 18115009884424306832
4990 188 17530682117327692059
522135 26 18409446990318072429
573450 72 17131835357110993987
602551 16 15338828811402116567

> <PUBCHEM_SHAPE_MULTIPOLES>
270.51
8.89
1.37
0.9
7.78
0.27
0.05
-2.38
2.09
-1.26
0.03
0.86
-0.04
-0.3

> <PUBCHEM_SHAPE_SELFOVERLAP>
573.755

> <PUBCHEM_SHAPE_VOLUME>
151.7

> <PUBCHEM_COORDINATE_TYPE>
2
5
10

$$$$
